! Program Version,EnergyPlus-Windows-64 8.1.0.009, YMD=2018.05.11 18:47,IDD_Version 8.1.0.009
! Output:Variable Objects (applicable to this run)
Output:Variable,*,Site Outdoor Air Drybulb Temperature,hourly; !- Zone Average [C]
Output:Variable,*,Site Outdoor Air Dewpoint Temperature,hourly; !- Zone Average [C]
Output:Variable,*,Site Outdoor Air Wetbulb Temperature,hourly; !- Zone Average [C]
Output:Variable,*,Site Outdoor Air Humidity Ratio,hourly; !- Zone Average [kgWater/kgDryAir]
Output:Variable,*,Site Outdoor Air Relative Humidity,hourly; !- Zone Average [%]
Output:Variable,*,Site Outdoor Air Barometric Pressure,hourly; !- Zone Average [Pa]
Output:Variable,*,Site Wind Speed,hourly; !- Zone Average [m/s]
Output:Variable,*,Site Wind Direction,hourly; !- Zone Average [deg]
Output:Variable,*,Site Sky Temperature,hourly; !- Zone Average [C]
Output:Variable,*,Site Horizontal Infrared Radiation Rate per Area,hourly; !- Zone Average [W/m2]
Output:Variable,*,Site Diffuse Solar Radiation Rate per Area,hourly; !- Zone Average [W/m2]
Output:Variable,*,Site Direct Solar Radiation Rate per Area,hourly; !- Zone Average [W/m2]
Output:Variable,*,Site Precipitation Depth,hourly; !- Zone Sum [m]
Output:Variable,*,Site Ground Reflected Solar Radiation Rate per Area,hourly; !- Zone Average [W/m2]
Output:Variable,*,Site Ground Temperature,hourly; !- Zone Average [C]
Output:Variable,*,Site Surface Ground Temperature,hourly; !- Zone Average [C]
Output:Variable,*,Site Deep Ground Temperature,hourly; !- Zone Average [C]
Output:Variable,*,Site Simple Factor Model Ground Temperature,hourly; !- Zone Average [C]
Output:Variable,*,Site Outdoor Air Enthalpy,hourly; !- Zone Average [J/kg]
Output:Variable,*,Site Outdoor Air Density,hourly; !- Zone Average [kg/m3]
Output:Variable,*,Site Solar Azimuth Angle,hourly; !- Zone Average [deg]
Output:Variable,*,Site Solar Altitude Angle,hourly; !- Zone Average [deg]
Output:Variable,*,Site Solar Hour Angle,hourly; !- Zone Average [deg]
Output:Variable,*,Site Rain Status,hourly; !- Zone Average []
Output:Variable,*,Site Snow on Ground Status,hourly; !- Zone Average []
Output:Variable,*,Site Exterior Horizontal Sky Illuminance,hourly; !- Zone Average [lux]
Output:Variable,*,Site Exterior Horizontal Beam Illuminance,hourly; !- Zone Average [lux]
Output:Variable,*,Site Exterior Beam Normal Illuminance,hourly; !- Zone Average [lux]
Output:Variable,*,Site Sky Diffuse Solar Radiation Luminous Efficacy,hourly; !- Zone Average [lum/W]
Output:Variable,*,Site Beam Solar Radiation Luminous Efficacy,hourly; !- Zone Average [lum/W]
Output:Variable,*,Site Daylighting Model Sky Clearness,hourly; !- Zone Average []
Output:Variable,*,Site Daylighting Model Sky Brightness,hourly; !- Zone Average []
Output:Variable,*,Site Daylight Saving Time Status,hourly; !- Zone Average []
Output:Variable,*,Site Day Type Index,hourly; !- Zone Average []
Output:Variable,*,Site Mains Water Temperature,hourly; !- Zone Average [C]
Output:Variable,*,Exterior Lights Electric Power,hourly; !- Zone Average [W]
Output:Variable,*,Exterior Lights Electric Energy,hourly; !- Zone Sum [J]
Output:Variable,*,Zone Outdoor Air Drybulb Temperature,hourly; !- Zone Average [C]
Output:Variable,*,Zone Outdoor Air Wetbulb Temperature,hourly; !- Zone Average [C]
Output:Variable,*,Zone Outdoor Air Wind Speed,hourly; !- Zone Average [m/s]
Output:Variable,*,Zone Total Internal Radiant Heating Energy,hourly; !- Zone Sum [J]
Output:Variable,*,Zone Total Internal Radiant Heating Rate,hourly; !- Zone Average [W]
Output:Variable,*,Zone Total Internal Visible Radiation Heating Energy,hourly; !- Zone Sum [J]
Output:Variable,*,Zone Total Internal Visible Radiation Heating Rate,hourly; !- Zone Average [W]
Output:Variable,*,Zone Total Internal Convective Heating Energy,hourly; !- Zone Sum [J]
Output:Variable,*,Zone Total Internal Convective Heating Rate,hourly; !- Zone Average [W]
Output:Variable,*,Zone Total Internal Latent Gain Energy,hourly; !- Zone Sum [J]
Output:Variable,*,Zone Total Internal Latent Gain Rate,hourly; !- Zone Average [W]
Output:Variable,*,Zone Total Internal Total Heating Energy,hourly; !- Zone Sum [J]
Output:Variable,*,Zone Total Internal Total Heating Rate,hourly; !- Zone Average [W]
Output:Variable,*,Other Equipment Radiant Heating Energy,hourly; !- Zone Sum [J]
Output:Variable,*,Other Equipment Radiant Heating Rate,hourly; !- Zone Average [W]
Output:Variable,*,Other Equipment Convective Heating Energy,hourly; !- Zone Sum [J]
Output:Variable,*,Other Equipment Convective Heating Rate,hourly; !- Zone Average [W]
Output:Variable,*,Other Equipment Latent Gain Energy,hourly; !- Zone Sum [J]
Output:Variable,*,Other Equipment Latent Gain Rate,hourly; !- Zone Average [W]
Output:Variable,*,Other Equipment Lost Heat Energy,hourly; !- Zone Sum [J]
Output:Variable,*,Other Equipment Lost Heat Rate,hourly; !- Zone Average [W]
Output:Variable,*,Other Equipment Total Heating Energy,hourly; !- Zone Sum [J]
Output:Variable,*,Other Equipment Total Heating Rate,hourly; !- Zone Average [W]
Output:Variable,*,Zone Other Equipment Radiant Heating Energy,hourly; !- Zone Sum [J]
Output:Variable,*,Zone Other Equipment Radiant Heating Rate,hourly; !- Zone Average [W]
Output:Variable,*,Zone Other Equipment Convective Heating Energy,hourly; !- Zone Sum [J]
Output:Variable,*,Zone Other Equipment Convective Heating Rate,hourly; !- Zone Average [W]
Output:Variable,*,Zone Other Equipment Latent Gain Energy,hourly; !- Zone Sum [J]
Output:Variable,*,Zone Other Equipment Latent Gain Rate,hourly; !- Zone Average [W]
Output:Variable,*,Zone Other Equipment Lost Heat Energy,hourly; !- Zone Sum [J]
Output:Variable,*,Zone Other Equipment Lost Heat Rate,hourly; !- Zone Average [W]
Output:Variable,*,Zone Other Equipment Total Heating Energy,hourly; !- Zone Sum [J]
Output:Variable,*,Zone Other Equipment Total Heating Rate,hourly; !- Zone Average [W]
Output:Variable,*,Zone Windows Total Transmitted Solar Radiation Rate,hourly; !- Zone Average [W]
Output:Variable,*,Zone Exterior Windows Total Transmitted Beam Solar Radiation Rate,hourly; !- Zone Average [W]
Output:Variable,*,Zone Interior Windows Total Transmitted Beam Solar Radiation Rate,hourly; !- Zone Average [W]
Output:Variable,*,Zone Exterior Windows Total Transmitted Diffuse Solar Radiation Rate,hourly; !- Zone Average [W]
Output:Variable,*,Zone Interior Windows Total Transmitted Diffuse Solar Radiation Rate,hourly; !- Zone Average [W]
Output:Variable,*,Zone Windows Total Heat Gain Rate,hourly; !- Zone Average [W]
Output:Variable,*,Zone Windows Total Heat Loss Rate,hourly; !- Zone Average [W]
Output:Variable,*,Zone Windows Total Transmitted Solar Radiation Energy,hourly; !- Zone Sum [J]
Output:Variable,*,Zone Exterior Windows Total Transmitted Beam Solar Radiation Energy,hourly; !- Zone Sum [J]
Output:Variable,*,Zone Interior Windows Total Transmitted Beam Solar Radiation Energy,hourly; !- Zone Sum [J]
Output:Variable,*,Zone Exterior Windows Total Transmitted Diffuse Solar Radiation Energy,hourly; !- Zone Sum [J]
Output:Variable,*,Zone Interior Windows Total Transmitted Diffuse Solar Radiation Energy,hourly; !- Zone Sum [J]
Output:Variable,*,Zone Windows Total Heat Gain Energy,hourly; !- Zone Sum [J]
Output:Variable,*,Zone Windows Total Heat Loss Energy,hourly; !- Zone Sum [J]
Output:Variable,*,Surface Outside Face Sunlit Area,hourly; !- Zone Average [m2]
Output:Variable,*,Surface Outside Face Sunlit Fraction,hourly; !- Zone Average []
Output:Variable,*,Surface Outside Face Incident Solar Radiation Rate per Area,hourly; !- Zone Average [W/m2]
Output:Variable,*,Surface Outside Face Incident Beam Solar Radiation Rate per Area,hourly; !- Zone Average [W/m2]
Output:Variable,*,Surface Outside Face Incident Sky Diffuse Solar Radiation Rate per Area,hourly; !- Zone Average [W/m2]
Output:Variable,*,Surface Outside Face Incident Ground Diffuse Solar Radiation Rate per Area,hourly; !- Zone Average [W/m2]
Output:Variable,*,Surface Outside Face Beam Solar Incident Angle Cosine Value,hourly; !- Zone Average []
Output:Variable,*,Surface Outside Face Incident Sky Diffuse Ground Reflected Solar Radiation Rate per Area,hourly; !- Zone Average [W/m2]
Output:Variable,*,Surface Outside Face Incident Sky Diffuse Surface Reflected Solar Radiation Rate per Area,hourly; !- Zone Average [W/m2]
Output:Variable,*,Surface Outside Face Incident Beam To Beam Surface Reflected Solar Radiation Rate per Area,hourly; !- Zone Average [W/m2]
Output:Variable,*,Surface Outside Face Incident Beam To Diffuse Surface Reflected Solar Radiation Rate per Area,hourly; !- Zone Average [W/m2]
Output:Variable,*,Surface Outside Face Incident Beam To Diffuse Ground Reflected Solar Radiation Rate per Area,hourly; !- Zone Average [W/m2]
Output:Variable,*,Surface Anisotropic Sky Multiplier,hourly; !- Zone Average []
Output:Variable,*,Surface Window BSDF Beam Direction Number,hourly; !- Zone Average []
Output:Variable,*,Surface Window BSDF Beam Theta Angle,hourly; !- Zone Average [rad]
Output:Variable,*,Surface Window BSDF Beam Phi Angle,hourly; !- Zone Average [rad]
Output:Variable,*,Surface Inside Face Exterior Windows Incident Beam Solar Radiation Rate per Area,hourly; !- Zone Average [W/m2]
Output:Variable,*,Surface Inside Face Exterior Windows Incident Beam Solar Radiation Rate,hourly; !- Zone Average [W]
Output:Variable,*,Surface Inside Face Interior Windows Incident Beam Solar Radiation Rate per Area,hourly; !- Zone Average [W/m2]
Output:Variable,*,Surface Inside Face Interior Windows Incident Beam Solar Radiation Rate,hourly; !- Zone Average [W]
Output:Variable,*,Surface Inside Face Initial Transmitted Diffuse Absorbed Solar Radiation Rate,hourly; !- Zone Average [W]
Output:Variable,*,Surface Inside Face Initial Transmitted Diffuse Transmitted Out Window Solar Radiation Rate,hourly; !- Zone Average [W]
Output:Variable,*,Surface Inside Face Absorbed Shortwave Radiation Rate,hourly; !- Zone Average [W]
Output:Variable,*,Surface Inside Face Exterior Windows Incident Beam Solar Radiation Energy,hourly; !- Zone Sum [J]
Output:Variable,*,Surface Inside Face Interior Windows Incident Beam Solar Radiation Energy,hourly; !- Zone Sum [J]
Output:Variable,*,Debug Surface Solar Shading Model DifShdgRatioIsoSky,hourly; !- Zone Average []
Output:Variable,*,Debug Surface Solar Shading Model DifShdgRatioHoriz,hourly; !- Zone Average []
Output:Variable,*,Debug Surface Solar Shading Model WithShdgIsoSky,hourly; !- Zone Average []
Output:Variable,*,Debug Surface Solar Shading Model WoShdgIsoSky,hourly; !- Zone Average []
Output:Variable,*,Surface Inside Face Temperature,hourly; !- Zone Average [C]
Output:Variable,*,Surface Outside Face Temperature,hourly; !- Zone Average [C]
Output:Variable,*,Surface Inside Face Adjacent Air Temperature,hourly; !- Zone Average [C]
Output:Variable,*,Surface Inside Face Convection Heat Transfer Coefficient,hourly; !- Zone Average [W/m2-K]
Output:Variable,*,Surface Inside Face Convection Heat Gain Rate,hourly; !- Zone Average [W]
Output:Variable,*,Surface Inside Face Convection Heat Gain Rate per Area,hourly; !- Zone Average [W/m2]
Output:Variable,*,Surface Inside Face Convection Heat Gain Energy,hourly; !- Zone Sum [J]
Output:Variable,*,Surface Inside Face Net Surface Thermal Radiation Heat Gain Rate,hourly; !- Zone Average [W]
Output:Variable,*,Surface Inside Face Net Surface Thermal Radiation Heat Gain Rate per Area,hourly; !- Zone Average [W/m2]
Output:Variable,*,Surface Inside Face Net Surface Thermal Radiation Heat Gain Energy,hourly; !- Zone Sum [J]
Output:Variable,*,Surface Inside Face Solar Radiation Heat Gain Rate,hourly; !- Zone Average [W]
Output:Variable,*,Surface Inside Face Solar Radiation Heat Gain Rate per Area,hourly; !- Zone Average [W/m2]
Output:Variable,*,Surface Inside Face Solar Radiation Heat Gain Energy,hourly; !- Zone Sum [J]
Output:Variable,*,Surface Inside Face Lights Radiation Heat Gain Rate,hourly; !- Zone Average [W]
Output:Variable,*,Surface Inside Face Lights Radiation Heat Gain Rate per Area,hourly; !- Zone Average [W/m2]
Output:Variable,*,Surface Inside Face Lights Radiation Heat Gain Energy,hourly; !- Zone Sum [J]
Output:Variable,*,Surface Inside Face Internal Gains Radiation Heat Gain Rate,hourly; !- Zone Average [W]
Output:Variable,*,Surface Inside Face Internal Gains Radiation Heat Gain Rate per Area,hourly; !- Zone Average [W/m2]
Output:Variable,*,Surface Inside Face Internal Gains Radiation Heat Gain Energy,hourly; !- Zone Sum [J]
Output:Variable,*,Surface Inside Face System Radiation Heat Gain Rate,hourly; !- Zone Average [W]
Output:Variable,*,Surface Inside Face System Radiation Heat Gain Rate per Area,hourly; !- Zone Average [W/m2]
Output:Variable,*,Surface Inside Face System Radiation Heat Gain Energy,hourly; !- Zone Sum [J]
Output:Variable,*,Surface Outside Face Outdoor Air Drybulb Temperature,hourly; !- Zone Average [C]
Output:Variable,*,Surface Outside Face Outdoor Air Wetbulb Temperature,hourly; !- Zone Average [C]
Output:Variable,*,Surface Outside Face Outdoor Air Wind Speed,hourly; !- Zone Average [m/s]
Output:Variable,*,Surface Outside Face Convection Heat Gain Rate,hourly; !- Zone Average [W]
Output:Variable,*,Surface Outside Face Convection Heat Gain Rate per Area,hourly; !- Zone Average [W/m2]
Output:Variable,*,Surface Outside Face Convection Heat Gain Energy,hourly; !- Zone Sum [J]
Output:Variable,*,Surface Outside Face Convection Heat Transfer Coefficient,hourly; !- Zone Average [W/m2-K]
Output:Variable,*,Surface Outside Face Net Thermal Radiation Heat Gain Rate,hourly; !- Zone Average [W]
Output:Variable,*,Surface Outside Face Net Thermal Radiation Heat Gain Rate per Area,hourly; !- Zone Average [W/m2]
Output:Variable,*,Surface Outside Face Net Thermal Radiation Heat Gain Energy,hourly; !- Zone Sum [J]
Output:Variable,*,Surface Outside Face Thermal Radiation to Air Heat Transfer Coefficient,hourly; !- Zone Average [W/m2-K]
Output:Variable,*,Surface Outside Face Thermal Radiation to Sky Heat Transfer Coefficient,hourly; !- Zone Average [W/m2-K]
Output:Variable,*,Surface Outside Face Thermal Radiation to Ground Heat Transfer Coefficient,hourly; !- Zone Average [W/m2-K]
Output:Variable,*,Surface Outside Face Solar Radiation Heat Gain Rate,hourly; !- Zone Average [W]
Output:Variable,*,Surface Outside Face Solar Radiation Heat Gain Rate per Area,hourly; !- Zone Average [W/m2]
Output:Variable,*,Surface Outside Face Solar Radiation Heat Gain Energy,hourly; !- Zone Sum [J]
Output:Variable,*,Surface Inside Face Conduction Heat Transfer Rate,hourly; !- Zone Average [W]
Output:Variable,*,Surface Inside Face Conduction Heat Gain Rate,hourly; !- Zone Average [W]
Output:Variable,*,Surface Inside Face Conduction Heat Loss Rate,hourly; !- Zone Average [W]
Output:Variable,*,Surface Inside Face Conduction Heat Transfer Rate per Area,hourly; !- Zone Average [W/m2]
Output:Variable,*,Surface Inside Face Conduction Heat Transfer Energy,hourly; !- Zone Sum [J]
Output:Variable,*,Surface Outside Face Conduction Heat Transfer Rate,hourly; !- Zone Average [W]
Output:Variable,*,Surface Outside Face Conduction Heat Gain Rate,hourly; !- Zone Average [W]
Output:Variable,*,Surface Outside Face Conduction Heat Loss Rate,hourly; !- Zone Average [W]
Output:Variable,*,Surface Outside Face Conduction Heat Transfer Rate per Area,hourly; !- Zone Average [W/m2]
Output:Variable,*,Surface Outside Face Conduction Heat Transfer Energy,hourly; !- Zone Sum [J]
Output:Variable,*,Surface Average Face Conduction Heat Transfer Rate,hourly; !- Zone Average [W]
Output:Variable,*,Surface Average Face Conduction Heat Gain Rate,hourly; !- Zone Average [W]
Output:Variable,*,Surface Average Face Conduction Heat Loss Rate,hourly; !- Zone Average [W]
Output:Variable,*,Surface Average Face Conduction Heat Transfer Rate per Area,hourly; !- Zone Average [W/m2]
Output:Variable,*,Surface Average Face Conduction Heat Transfer Energy,hourly; !- Zone Sum [J]
Output:Variable,*,Surface Heat Storage Rate,hourly; !- Zone Average [W]
Output:Variable,*,Surface Heat Storage Gain Rate,hourly; !- Zone Average [W]
Output:Variable,*,Surface Heat Storage Loss Rate,hourly; !- Zone Average [W]
Output:Variable,*,Surface Heat Storage Rate per Area,hourly; !- Zone Average [W/m2]
Output:Variable,*,Surface Heat Storage Energy,hourly; !- Zone Sum [J]
Output:Variable,*,Surface Inside Face Beam Solar Radiation Heat Gain Rate,hourly; !- Zone Average [W]
Output:Variable,*,Surface Inside Face Convection Classification Index,hourly; !- Zone Average []
Output:Variable,*,Surface Inside Face Convection Model Equation Index,hourly; !- Zone Average []
Output:Variable,*,Surface Inside Face Convection Reference Air Index,hourly; !- Zone Average []
Output:Variable,*,Surface Outside Face Convection Classification Index,hourly; !- Zone Average []
Output:Variable,*,Surface Outside Face Forced Convection Model Equation Index,hourly; !- Zone Average []
Output:Variable,*,Surface Outside Face Natural Convection Model Equation Index,hourly; !- Zone Average []
Output:Variable,*,Zone Mean Radiant Temperature,hourly; !- Zone Average [C]
Output:Variable,*,Zone Mean Air Temperature,hourly; !- Zone Average [C]
Output:Variable,*,Zone Operative Temperature,hourly; !- Zone Average [C]
Output:Variable,*,Zone Mean Air Dewpoint Temperature,hourly; !- Zone Average [C]
Output:Variable,*,Zone Mean Air Humidity Ratio,hourly; !- Zone Average [kgWater/kgDryAir]
Output:Variable,*,Zone Air Heat Balance Internal Convective Heat Gain Rate,hourly; !- HVAC Average [W]
Output:Variable,*,Zone Air Heat Balance Surface Convection Rate,hourly; !- HVAC Average [W]
Output:Variable,*,Zone Air Heat Balance Interzone Air Transfer Rate,hourly; !- HVAC Average [W]
Output:Variable,*,Zone Air Heat Balance Outdoor Air Transfer Rate,hourly; !- HVAC Average [W]
Output:Variable,*,Zone Air Heat Balance System Air Transfer Rate,hourly; !- HVAC Average [W]
Output:Variable,*,Zone Air Heat Balance System Convective Heat Gain Rate,hourly; !- HVAC Average [W]
Output:Variable,*,Zone Air Heat Balance Air Energy Storage Rate,hourly; !- HVAC Average [W]
Output:Variable,*,Zone Air System Sensible Heating Energy,hourly; !- HVAC Sum [J]
Output:Variable,*,Zone Air System Sensible Cooling Energy,hourly; !- HVAC Sum [J]
Output:Variable,*,Zone Air System Sensible Heating Rate,hourly; !- HVAC Average [W]
Output:Variable,*,Zone Air System Sensible Cooling Rate,hourly; !- HVAC Average [W]
Output:Variable,*,Zone Air Temperature,hourly; !- HVAC Average [C]
Output:Variable,*,Zone Thermostat Air Temperature,hourly; !- HVAC Average [C]
Output:Variable,*,Zone Air Humidity Ratio,hourly; !- HVAC Average []
Output:Variable,*,Zone Air Relative Humidity,hourly; !- HVAC Average [%]
Output:Variable,*,Zone Predicted Sensible Load to Setpoint Heat Transfer Rate,hourly; !- HVAC Average [W]
Output:Variable,*,Zone Predicted Sensible Load to Heating Setpoint Heat Transfer Rate,hourly; !- HVAC Average [W]
Output:Variable,*,Zone Predicted Sensible Load to Cooling Setpoint Heat Transfer Rate,hourly; !- HVAC Average [W]
Output:Variable,*,Zone Predicted Moisture Load Moisture Transfer Rate,hourly; !- HVAC Average [kgWater/s]
Output:Variable,*,Zone Predicted Moisture Load to Humidifying Setpoint Moisture Transfer Rate,hourly; !- HVAC Average [kgWater/s]
Output:Variable,*,Zone Predicted Moisture Load to Dehumidifying Setpoint Moisture Transfer Rate,hourly; !- HVAC Average [kgWater/s]
Output:Variable,*,Zone Thermostat Control Type,hourly; !- Zone Average []
Output:Variable,*,Zone Thermostat Heating Setpoint Temperature,hourly; !- Zone Average [C]
Output:Variable,*,Zone Thermostat Cooling Setpoint Temperature,hourly; !- Zone Average [C]
Output:Variable,*,Zone Predicted Sensible Load Room Air Correction Factor,hourly; !- HVAC Average []
Output:Variable,*,HVAC System Solver Iteration Count,hourly; !- HVAC Sum []
Output:Variable,*,Air System Solver Iteration Count,hourly; !- HVAC Sum []
Output:Variable,*,Air System Simulation Maximum Iteration Count,hourly; !- HVAC Sum []
Output:Variable,*,Air System Simulation Iteration Count,hourly; !- HVAC Sum []
Output:Variable,*,Air System Component Model Simulation Calls,hourly; !- HVAC Sum []
Output:Variable,*,Facility Total Purchased Electric Power,hourly; !- HVAC Average [W]
Output:Variable,*,Facility Total Purchased Electric Energy,hourly; !- HVAC Sum [J]
Output:Variable,*,Facility Total Surplus Electric Energy,hourly; !- HVAC Sum [J]
Output:Variable,*,Facility Net Purchased Electric Power,hourly; !- HVAC Average [W]
Output:Variable,*,Facility Net Purchased Electric Energy,hourly; !- HVAC Sum [J]
Output:Variable,*,Facility Total Building Electric Demand Power,hourly; !- HVAC Average [W]
Output:Variable,*,Facility Total HVAC Electric Demand Power,hourly; !- HVAC Average [W]
Output:Variable,*,Facility Total Electric Demand Power,hourly; !- HVAC Average [W]
Output:Variable,*,Facility Total Produced Electric Power,hourly; !- HVAC Average [W]
Output:Variable,*,Facility Total Produced Electric Energy,hourly; !- HVAC Sum [J]
Output:Variable,*,Zone Oscillating Temperatures Time,hourly; !- HVAC Sum [hr]
Output:Variable,*,Facility Any Zone Oscillating Temperatures Time,hourly; !- HVAC Sum [hr]
Output:Variable,*,Zone Thermal Comfort ASHRAE 55 Simple Model Summer Clothes Not Comfortable Time,hourly; !- Zone Sum [hr]
Output:Variable,*,Zone Thermal Comfort ASHRAE 55 Simple Model Winter Clothes Not Comfortable Time,hourly; !- Zone Sum [hr]
Output:Variable,*,Zone Thermal Comfort ASHRAE 55 Simple Model Summer or Winter Clothes Not Comfortable Time,hourly; !- Zone Sum [hr]
Output:Variable,*,Facility Thermal Comfort ASHRAE 55 Simple Model Summer Clothes Not Comfortable Time,hourly; !- Zone Sum [hr]
Output:Variable,*,Facility Thermal Comfort ASHRAE 55 Simple Model Winter Clothes Not Comfortable Time,hourly; !- Zone Sum [hr]
Output:Variable,*,Facility Thermal Comfort ASHRAE 55 Simple Model Summer or Winter Clothes Not Comfortable Time,hourly; !- Zone Sum [hr]
Output:Variable,*,Zone Heating Setpoint Not Met Time,hourly; !- Zone Sum [hr]
Output:Variable,*,Zone Heating Setpoint Not Met While Occupied Time,hourly; !- Zone Sum [hr]
Output:Variable,*,Zone Cooling Setpoint Not Met Time,hourly; !- Zone Sum [hr]
Output:Variable,*,Zone Cooling Setpoint Not Met While Occupied Time,hourly; !- Zone Sum [hr]
Output:Variable,*,Facility Heating Setpoint Not Met Time,hourly; !- Zone Sum [hr]
Output:Variable,*,Facility Cooling Setpoint Not Met Time,hourly; !- Zone Sum [hr]
Output:Variable,*,Facility Heating Setpoint Not Met While Occupied Time,hourly; !- Zone Sum [hr]
Output:Variable,*,Facility Cooling Setpoint Not Met While Occupied Time,hourly; !- Zone Sum [hr]
Output:Variable,*,Schedule Value,hourly; !- Zone Average []
Output:Variable,*,Environmental Impact Total N2O Emissions Carbon Equivalent Mass,hourly; !- HVAC Sum [kg]
Output:Variable,*,Environmental Impact Total CH4 Emissions Carbon Equivalent Mass,hourly; !- HVAC Sum [kg]
Output:Variable,*,Environmental Impact Total CO2 Emissions Carbon Equivalent Mass,hourly; !- HVAC Sum [kg]
