  0
SECTION
  2
ENTITIES
999
DXF created from EnergyPlus
999
Program Version,EnergyPlus, Version 8.5.0-c87e61b44b, YMD=2018.05.11 18:47
999
DXF using Wireframe  
999
Color Scheme,Default
999
Text - True North
  0
TEXT
  8
1
  6
Continuous
 62
  3
 10
      -11.00000
 20
        3.00000
 30
        0.10000
 40
 .25
  1
True North
 41
 0.0
  7
MONOTXT
210
0.0
220
0.0
230
1.0
999
Text - Building Title
  0
TEXT
  8
1
  6
Continuous
 62
  3
 10
      -14.00000
 20
       -1.00000
 30
        0.10000
 40
 .4
  1
Building - Simple One Zone (Wireframe DXF)
 41
 0.0
  7
MONOTXT
210
0.0
220
0.0
230
1.0
999
North Arrow Stem
  0
3DFACE
  8
1
 62
  3
 10
      -10.00000
 20
        3.00000
 30
        0.10000
 11
      -10.00000
 21
        3.00000
 31
        0.00000
 12
      -10.00000
 22
        0.00000
 32
        0.00000
 13
      -10.00000
 23
        0.00000
 33
        0.10000
999
North Arrow Head 1
  0
3DFACE
  8
1
 62
  3
 10
      -10.00000
 20
        3.00000
 30
        0.10000
 11
      -10.00000
 21
        3.00000
 31
        0.00000
 12
      -10.50000
 22
        2.13398
 32
        0.00000
 13
      -10.50000
 23
        2.13398
 33
        0.10000
999
North Arrow Head 2
  0
3DFACE
  8
1
 62
  3
 10
      -10.00000
 20
        3.00000
 30
        0.10000
 11
      -10.00000
 21
        3.00000
 31
        0.00000
 12
       -9.50000
 22
        2.13398
 32
        0.00000
 13
       -9.50000
 23
        2.13398
 33
        0.10000
999
North Arrow Side 1
  0
3DFACE
  8
1
 62
  3
 10
      -10.50000
 20
        4.50000
 30
        0.10000
 11
      -10.50000
 21
        4.50000
 31
        0.00000
 12
      -10.50000
 22
        3.50000
 32
        0.00000
 13
      -10.50000
 23
        3.50000
 33
        0.10000
999
North Arrow Side 2
  0
3DFACE
  8
1
 62
  3
 10
      -10.50000
 20
        4.50000
 30
        0.10000
 11
      -10.50000
 21
        4.50000
 31
        0.00000
 12
       -9.50000
 22
        3.50000
 32
        0.00000
 13
       -9.50000
 23
        3.50000
 33
        0.10000
999
North Arrow Side 3
  0
3DFACE
  8
1
 62
  3
 10
       -9.50000
 20
        4.50000
 30
        0.10000
 11
       -9.50000
 21
        4.50000
 31
        0.00000
 12
       -9.50000
 22
        3.50000
 32
        0.00000
 13
       -9.50000
 23
        3.50000
 33
        0.10000
999
Zone Names
999
Zone=1:ZONE_ONE
999
ZONE ONE:ZN001:WALL001
  0
POLYLINE
  8
ZONE_ONE_1
 62
 43
 66
  1
 10
 0.0
 20
 0.0
 30
        0.00000
 70
   9
 40
 0.55
 41
 0.55
  0
VERTEX
  8
ZONE_ONE_1
 10
        0.00000
 20
        0.00000
 30
        4.57200
  0
VERTEX
  8
ZONE_ONE_1
 10
        0.00000
 20
        0.00000
 30
        0.00000
  0
VERTEX
  8
ZONE_ONE_1
 10
       15.24000
 20
        0.00000
 30
        0.00000
  0
VERTEX
  8
ZONE_ONE_1
 10
       15.24000
 20
        0.00000
 30
        4.57200
  0
SEQEND
  8
ZONE_ONE_1
999
ZONE ONE:ZN001:WALL002
  0
POLYLINE
  8
ZONE_ONE_2
 62
 43
 66
  1
 10
 0.0
 20
 0.0
 30
        0.00000
 70
   9
 40
 0.55
 41
 0.55
  0
VERTEX
  8
ZONE_ONE_2
 10
       15.24000
 20
        0.00000
 30
        4.57200
  0
VERTEX
  8
ZONE_ONE_2
 10
       15.24000
 20
        0.00000
 30
        0.00000
  0
VERTEX
  8
ZONE_ONE_2
 10
       15.24000
 20
       15.24000
 30
        0.00000
  0
VERTEX
  8
ZONE_ONE_2
 10
       15.24000
 20
       15.24000
 30
        4.57200
  0
SEQEND
  8
ZONE_ONE_2
999
ZONE ONE:ZN001:WALL003
  0
POLYLINE
  8
ZONE_ONE_3
 62
 43
 66
  1
 10
 0.0
 20
 0.0
 30
        0.00000
 70
   9
 40
 0.55
 41
 0.55
  0
VERTEX
  8
ZONE_ONE_3
 10
       15.24000
 20
       15.24000
 30
        4.57200
  0
VERTEX
  8
ZONE_ONE_3
 10
       15.24000
 20
       15.24000
 30
        0.00000
  0
VERTEX
  8
ZONE_ONE_3
 10
        0.00000
 20
       15.24000
 30
        0.00000
  0
VERTEX
  8
ZONE_ONE_3
 10
        0.00000
 20
       15.24000
 30
        4.57200
  0
SEQEND
  8
ZONE_ONE_3
999
ZONE ONE:ZN001:WALL004
  0
POLYLINE
  8
ZONE_ONE_4
 62
 43
 66
  1
 10
 0.0
 20
 0.0
 30
        0.00000
 70
   9
 40
 0.55
 41
 0.55
  0
VERTEX
  8
ZONE_ONE_4
 10
        0.00000
 20
       15.24000
 30
        4.57200
  0
VERTEX
  8
ZONE_ONE_4
 10
        0.00000
 20
       15.24000
 30
        0.00000
  0
VERTEX
  8
ZONE_ONE_4
 10
        0.00000
 20
        0.00000
 30
        0.00000
  0
VERTEX
  8
ZONE_ONE_4
 10
        0.00000
 20
        0.00000
 30
        4.57200
  0
SEQEND
  8
ZONE_ONE_4
999
ZONE ONE:ZN001:FLR001
  0
POLYLINE
  8
ZONE_ONE_5
 62
  8
 66
  1
 10
 0.0
 20
 0.0
 30
        0.00000
 70
   9
 40
 0.55
 41
 0.55
  0
VERTEX
  8
ZONE_ONE_5
 10
       15.24000
 20
        0.00000
 30
        0.00000
  0
VERTEX
  8
ZONE_ONE_5
 10
        0.00000
 20
        0.00000
 30
        0.00000
  0
VERTEX
  8
ZONE_ONE_5
 10
        0.00000
 20
       15.24000
 30
        0.00000
  0
VERTEX
  8
ZONE_ONE_5
 10
       15.24000
 20
       15.24000
 30
        0.00000
  0
SEQEND
  8
ZONE_ONE_5
999
ZONE ONE:ZN001:ROOF001
  0
POLYLINE
  8
ZONE_ONE_6
 62
 15
 66
  1
 10
 0.0
 20
 0.0
 30
        4.57200
 70
   9
 40
 0.55
 41
 0.55
  0
VERTEX
  8
ZONE_ONE_6
 10
        0.00000
 20
       15.24000
 30
        4.57200
  0
VERTEX
  8
ZONE_ONE_6
 10
        0.00000
 20
        0.00000
 30
        4.57200
  0
VERTEX
  8
ZONE_ONE_6
 10
       15.24000
 20
        0.00000
 30
        4.57200
  0
VERTEX
  8
ZONE_ONE_6
 10
       15.24000
 20
       15.24000
 30
        4.57200
  0
SEQEND
  8
ZONE_ONE_6
  0
ENDSEC
  0
EOF
